
#######################################################################
#
#                 Cambridge Crystallographic Data Centre
#                                CCDC 
#
#######################################################################
#
# If this CIF has been generated from an entry in the Cambridge 
# Structural Database, then it will include bibliographic, chemical, 
# crystal, experimental, refinement or atomic coordinate data resulting 
# from the CCDC's data processing and validation procedures.
#
#######################################################################

data_01
_cell_length_a                   1
_cell_length_b                   1
_cell_length_c                   1
_cell_angle_alpha                90
_cell_angle_beta                 90
_cell_angle_gamma                90
_cell_volume                     1
loop_
_atom_site_label
_atom_site_type_symbol
_atom_site_fract_x
_atom_site_fract_y
_atom_site_fract_z
_atom_site_U_iso_or_equiv
_atom_site_thermal_displace_type
Ir1 Ir 0.63000(2) 0.01406(2) 0.20809(2) 0.0118 Uani
N1 N 0.8045(3) 0.09235(19) 0.2798(2) 0.0140 Uani
N2 N 0.7807(3) 0.20453(19) 0.4461(2) 0.0164 Uani
N3 N 0.5898(3) 0.11465(18) 0.3427(2) 0.0143 Uani
O1 O 0.3479(2) -0.08589(18) 0.1601(2) 0.0271 Uani
O2 O 0.7574(3) -0.11595(18) 0.0229(2) 0.0261 Uani
C1 C 0.4554(3) -0.0464(2) 0.1750(3) 0.0172 Uani
C2 C 0.7073(3) -0.0661(2) 0.0925(3) 0.0173 Uani
C3 C 0.9514(3) -0.0519(3) 0.3522(3) 0.0237 Uani
H1 H 1.049928 -0.073974 0.368323 0.0350 Uiso
H2 H 0.900054 -0.054928 0.426068 0.0350 Uiso
H3 H 0.904823 -0.096287 0.292164 0.0350 Uiso
C4 C 0.9503(3) 0.0562(2) 0.3053(3) 0.0153 Uani
H4 H 0.996819 0.100466 0.368043 0.0180 Uiso
C5 C 1.0329(3) 0.0650(3) 0.1924(3) 0.0255 Uani
H5 H 1.130506 0.041003 0.208639 0.0380 Uiso
H6 H 0.986476 0.024120 0.128927 0.0380 Uiso
H7 H 1.034916 0.135637 0.167030 0.0380 Uiso
C6 C 0.3622(3) 0.1144(3) 0.4406(3) 0.0230 Uani
H8 H 0.278910 0.155583 0.457176 0.0340 Uiso
H9 H 0.331439 0.054567 0.395038 0.0340 Uiso
H10 H 0.410505 0.093662 0.516114 0.0340 Uiso
C7 C 0.4648(3) 0.1762(2) 0.3677(3) 0.0151 Uani
H11 H 0.496798 0.236496 0.415363 0.0180 Uiso
C8 C 0.3906(3) 0.2116(2) 0.2507(3) 0.0191 Uani
H12 H 0.307463 0.252580 0.268259 0.0290 Uiso
H13 H 0.456869 0.252081 0.205918 0.0290 Uiso
H14 H 0.359826 0.152983 0.202990 0.0290 Uiso
C9 C 0.7261(3) 0.1405(2) 0.3605(2) 0.0135 Uani
C10 C 0.9054(3) 0.2661(2) 0.4272(3) 0.0224 Uani
H15 H 0.927939 0.306786 0.498693 0.0340 Uiso
H16 H 0.986447 0.222455 0.411637 0.0340 Uiso
H17 H 0.885986 0.310683 0.358566 0.0340 Uiso
C11 C 0.7113(4) 0.2220(3) 0.5575(3) 0.0231 Uani
H18 H 0.767246 0.270245 0.606531 0.0350 Uiso
H19 H 0.615637 0.249243 0.539898 0.0350 Uiso
H20 H 0.704142 0.158276 0.600933 0.0350 Uiso
loop_
_atom_site_aniso_label
_atom_site_aniso_U_11
_atom_site_aniso_U_22
_atom_site_aniso_U_33
_atom_site_aniso_U_23
_atom_site_aniso_U_13
_atom_site_aniso_U_12
Ir1 0.01053(6) 0.01220(7) 0.01248(7) -0.00168(4) -0.00020(4) 0.00041(4)
N1 0.0096(11) 0.0180(12) 0.0144(12) -0.0015(9) -0.0001(9) 0.0000(9)
N2 0.0130(12) 0.0171(12) 0.0186(13) -0.0037(10) -0.0027(10) -0.0006(10)
N3 0.0110(11) 0.0151(12) 0.0168(12) -0.0036(9) -0.0003(9) 0.0000(9)
O1 0.0165(11) 0.0246(12) 0.0400(14) -0.0091(10) -0.0018(10) -0.0032(9)
O2 0.0292(13) 0.0282(13) 0.0213(12) -0.0073(10) 0.0057(10) 0.0018(10)
C1 0.0178(15) 0.0137(13) 0.0200(14) -0.0026(11) 0.0014(11) 0.0007(12)
C2 0.0184(15) 0.0172(14) 0.0163(14) 0.0004(11) -0.0005(11) 0.0004(12)
C3 0.0189(16) 0.0243(17) 0.0272(17) 0.0054(13) -0.0049(13) 0.0021(13)
C4 0.0108(13) 0.0185(15) 0.0167(14) 0.0003(11) 0.0010(11) 0.0004(11)
C5 0.0155(15) 0.038(2) 0.0233(17) 0.0056(14) 0.0051(12) 0.0022(14)
C6 0.0181(16) 0.0263(17) 0.0252(17) 0.0013(13) 0.0072(13) 0.0002(13)
C7 0.0130(14) 0.0146(14) 0.0178(14) -0.0018(11) 0.0027(11) 0.0017(11)
C8 0.0173(15) 0.0178(15) 0.0222(15) -0.0009(12) -0.0001(12) 0.0041(12)
C9 0.0159(14) 0.0125(13) 0.0118(13) 0.0026(10) -0.0018(11) -0.0001(11)
C10 0.0170(15) 0.0192(15) 0.0302(18) -0.0031(13) -0.0061(13) -0.0019(12)
C11 0.0257(17) 0.0249(17) 0.0181(15) -0.0086(13) -0.0056(13) 0.0052(13)
loop_
_geom_bond_atom_site_label_1
_geom_bond_atom_site_label_2
_geom_bond_site_symmetry_1
_geom_bond_site_symmetry_2
Ir1 N1 1_555 1_555
N1 C4 1_555 1_555
N2 C9 1_555 1_555
N3 Ir1 1_555 1_555
O1 C1 1_555 1_555
O2 C2 1_555 1_555
C1 Ir1 1_555 1_555
C2 Ir1 1_555 1_555
C3 H1 1_555 1_555
H2 C3 1_555 1_555
H3 C3 1_555 1_555
C4 C3 1_555 1_555
H4 C4 1_555 1_555
C5 C4 1_555 1_555
H5 C5 1_555 1_555
H6 C5 1_555 1_555
H7 C5 1_555 1_555
C6 H8 1_555 1_555
H9 C6 1_555 1_555
H10 C6 1_555 1_555
C7 N3 1_555 1_555
H11 C7 1_555 1_555
C8 C7 1_555 1_555
H12 C8 1_555 1_555
H13 C8 1_555 1_555
H14 C8 1_555 1_555
C9 N1 1_555 1_555
C10 N2 1_555 1_555
H15 C10 1_555 1_555
H16 C10 1_555 1_555
H17 C10 1_555 1_555
C11 N2 1_555 1_555
H18 C11 1_555 1_555
H19 C11 1_555 1_555
H20 C11 1_555 1_555
N3 C9 1_555 1_555
C6 C7 1_555 1_555

#END
