@<TRIPOS>MOLECULE
01
    23    24     1     0     0
SMALL
USER_CHARGES
****
Generated from the CSD

@<TRIPOS>ATOM
     1 Hg1     -1.4845  11.6263   3.1808   Hg        1 RES1   2.0000
     2 N1      -1.4845   9.5396   3.1808   N.ar      1 RES1   0.0000
     3 N2      -1.4845  13.7178   3.1808   N.ar      1 RES1   0.0000
     4 C1      -0.4010   8.8715   2.7890   C.ar      1 RES1   0.0000
     5 H1       0.3727   9.3534   2.5205   H         1 RES1   0.0000
     6 C2      -0.3801   7.5037   2.7673   C.ar      1 RES1   0.0000
     7 H2       0.3939   7.0413   2.4683   H         1 RES1   0.0000
     8 C3      -1.4845   6.8071   3.1808   C.ar      1 RES1   0.0000
     9 H3      -1.4845   5.8568   3.1808   H         1 RES1   0.0000
    10 C4      -0.3355  14.3949   3.1261   C.ar      1 RES1   0.0000
    11 H4       0.4825  13.9145   3.0841   H         1 RES1   0.0000
    12 C5      -0.3073  15.7687   3.1287   C.ar      1 RES1   0.0000
    13 H5       0.5221  16.2311   3.0956   H         1 RES1   0.0000
    14 C6      -1.4845  16.4653   3.1808   C.ar      1 RES1   0.0000
    15 H6      -1.4845  17.4157   3.1808   H         1 RES1   0.0000
    16 C2B     -2.5889   7.5037   3.5943   C.ar      1 RES1   0.0000
    17 C1B     -2.5679   8.8715   3.5727   C.ar      1 RES1   0.0000
    18 H1B     -3.3416   9.3534   3.8412   H         1 RES1   0.0000
    19 H2B     -3.3628   7.0413   3.8933   H         1 RES1   0.0000
    20 C5B     -2.6616  15.7687   3.2330   C.ar      1 RES1   0.0000
    21 C4B     -2.6334  14.3949   3.2355   C.ar      1 RES1   0.0000
    22 H4B     -3.4515  13.9145   3.2775   H         1 RES1   0.0000
    23 H5B     -3.4910  16.2311   3.2661   H         1 RES1   0.0000
@<TRIPOS>BOND
     1     1     2    1
     2     2     4   ar
     3     3     1    1
     4     4     5    1
     5     6     4   ar
     6     7     6    1
     7     8     6   ar
     8     9     8    1
     9    10     3   ar
    10    11    10    1
    11    12    10   ar
    12    13    12    1
    13    14    12   ar
    14    15    14    1
    15    16     8   ar
    16    17     2   ar
    17    18    17    1
    18    19    16    1
    19    20    14   ar
    20    21     3   ar
    21    22    21    1
    22    23    20    1
    23    16    17   ar
    24    20    21   ar
@<TRIPOS>SUBSTRUCTURE
     1 RES1        1 GROUP             0 ****  ****    0  
