@<TRIPOS>MOLECULE
lig
 64 66 0 0 0
SMALL
GASTEIGER

@<TRIPOS>ATOM
      1  C11       32.6920   18.0830   13.9880 C.2   5100  BTN5100     0.3047
      2  O11       33.5800   17.3700   13.4530 O.2   5100  BTN5100    -0.2510
      3  O12       32.6200   19.3280   13.7750 O.3   5100  BTN5100    -0.4806
      4  C10       31.7150   17.4590   14.9100 C.3   5100  BTN5100     0.0448
      5  C9        31.3080   16.0370   14.5250 C.3   5100  BTN5100    -0.0430
      6  C8        30.5210   16.0390   13.1930 C.3   5100  BTN5100    -0.0515
      7  C7        30.1010   14.5980   12.8000 C.3   5100  BTN5100    -0.0394
      8  C2        29.3000   14.5470   11.5050 C.3   5100  BTN5100     0.0255
      9  S1        27.5890   15.1970   11.6360 S.3   5100  BTN5100    -0.1536
     10  C6        27.2490   14.5590    9.9820 C.3   5100  BTN5100     0.0143
     11  C5        27.8730   13.1670    9.9310 C.3   5100  BTN5100     0.0529
     12  N1        27.0270   12.1200   10.4720 N.am  5100  BTN5100    -0.2940
     13  C3        27.5510   11.5300   11.5630 C.2   5100  BTN5100     0.3002
     14  O3        26.9870   10.6260   12.2170 O.2   5100  BTN5100    -0.2528
     15  N2        28.7390   12.1070   11.8320 N.am  5100  BTN5100    -0.2937
     16  C4        29.0950   13.1550   10.8780 C.3   5100  BTN5100     0.0555
     17  C11        6.3830   24.5750    3.1720 C.2   5200  BTN5200     0.3047
     18  O11        6.1040   25.2900    2.1760 O.2   5200  BTN5200    -0.2510
     19  O12        6.5790   23.3350    3.0690 O.3   5200  BTN5200    -0.4806
     20  C10        6.4630   25.1970    4.5070 C.3   5200  BTN5200     0.0448
     21  C9         7.0130   26.6310    4.5380 C.3   5200  BTN5200    -0.0430
     22  C8         8.4820   26.6450    4.0740 C.3   5200  BTN5200    -0.0515
     23  C7         9.1020   28.0770    4.1210 C.3   5200  BTN5200    -0.0394
     24  C2        10.5850   28.1050    3.7250 C.3   5200  BTN5200     0.0255
     25  S1        11.6640   27.4280    5.0440 S.3   5200  BTN5200    -0.1536
     26  C6        13.1110   28.0300    4.1250 C.3   5200  BTN5200     0.0143
     27  C5        12.7180   29.4180    3.6250 C.3   5200  BTN5200     0.0529
     28  N1        12.9690   30.4630    4.5720 N.am  5200  BTN5200    -0.2940
     29  C3        11.8450   31.0770    5.0070 C.2   5200  BTN5200     0.3002
     30  O3        11.7700   31.9950    5.8400 O.2   5200  BTN5200    -0.2528
     31  N2        10.7860   30.5300    4.3480 N.am  5200  BTN5200    -0.2937
     32  C4        11.1890   29.4550    3.4200 C.3   5200  BTN5200     0.0555
     33 H          31.9484   19.8356   14.1864 H     5100  BTN5100     0.2951
     34 H          30.8345   18.0668   14.9270 H     5100  BTN5100     0.0377
     35 H          32.1929   17.3935   15.8651 H     5100  BTN5100     0.0377
     36 H          32.1872   15.4374   14.4134 H     5100  BTN5100     0.0270
     37 H          30.6827   15.6361   15.2952 H     5100  BTN5100     0.0270
     38 H          29.6442   16.6421   13.3044 H     5100  BTN5100     0.0266
     39 H          31.1498   16.4353   12.4233 H     5100  BTN5100     0.0266
     40 H          30.9840   14.0059   12.6790 H     5100  BTN5100     0.0276
     41 H          29.4737   14.2218   13.5809 H     5100  BTN5100     0.0276
     42 H          29.9370   15.1559   10.8980 H     5100  BTN5100     0.0431
     43 H          26.1936   14.4995    9.8162 H     5100  BTN5100     0.0395
     44 H          27.6537   15.1977    9.2249 H     5100  BTN5100     0.0395
     45 H          28.0775   12.9818    8.8972 H     5100  BTN5100     0.0525
     46 H          26.1593   11.8670   10.0817 H     5100  BTN5100     0.1506
     47 H          29.3082   11.8490   12.5927 H     5100  BTN5100     0.1506
     48 H          30.0360   12.9522   10.4107 H     5100  BTN5100     0.0528
     49 H           6.7853   22.8285    3.8298 H     5200  BTN5200     0.2951
     50 H           7.0970   24.5878    5.1168 H     5200  BTN5200     0.0377
     51 H           5.4554   25.2617    4.8612 H     5200  BTN5200     0.0377
     52 H           6.4301   27.2477    3.8862 H     5200  BTN5200     0.0270
     53 H           6.9584   27.0054    5.5389 H     5200  BTN5200     0.0270
     54 H           9.0511   26.0020    4.7125 H     5200  BTN5200     0.0266
     55 H           8.5088   26.3088    3.0586 H     5200  BTN5200     0.0266
     56 H           8.5579   28.7058    3.4476 H     5200  BTN5200     0.0276
     57 H           9.0355   28.4202    5.1323 H     5200  BTN5200     0.0276
     58 H          10.5591   27.5199    2.8295 H     5200  BTN5200     0.0431
     59 H          13.9649   28.0902    4.7670 H     5200  BTN5200     0.0395
     60 H          13.3752   27.3751    3.3211 H     5200  BTN5200     0.0395
     61 H          13.2959   29.5791    2.7390 H     5200  BTN5200     0.0525
     62 H          13.8719   30.7103    4.8767 H     5200  BTN5200     0.1506
     63 H           9.8539   30.8198    4.4765 H     5200  BTN5200     0.1506
     64 H          10.8595   29.6517    2.4212 H     5200  BTN5200     0.0528
@<TRIPOS>BOND
     1    18    17    2
     2    19    17    1
     3    17    20    1
     4    32    27    1
     5    32    24    1
     6    32    31    1
     7    27    26    1
     8    27    28    1
     9    24    23    1
    10    24    25    1
    11    22    23    1
    12    22    21    1
    13    26    25    1
    14    31    29   am
    15    20    21    1
    16    28    29   am
    17    29    30    2
    18    11    10    1
    19    11    12    1
    20    11    16    1
    21    10     9    1
    22    12    13   am
    23    16     8    1
    24    16    15    1
    25     8     9    1
    26     8     7    1
    27    13    15   am
    28    13    14    2
    29     7     6    1
    30     6     5    1
    31     2     1    2
    32     3     1    1
    33     1     4    1
    34     5     4    1
    35     3    33    1
    36     4    34    1
    37     4    35    1
    38     5    36    1
    39     5    37    1
    40     6    38    1
    41     6    39    1
    42     7    40    1
    43     7    41    1
    44     8    42    1
    45    10    43    1
    46    10    44    1
    47    11    45    1
    48    12    46    1
    49    15    47    1
    50    16    48    1
    51    19    49    1
    52    20    50    1
    53    20    51    1
    54    21    52    1
    55    21    53    1
    56    22    54    1
    57    22    55    1
    58    23    56    1
    59    23    57    1
    60    24    58    1
    61    26    59    1
    62    26    60    1
    63    27    61    1
    64    28    62    1
    65    31    63    1
    66    32    64    1
