@<TRIPOS>MOLECULE
lig
 32 33 0 0 0
SMALL
GASTEIGER

@<TRIPOS>ATOM
      1 C11        39.9220   24.5750  100.7590 C.2     5  BTN52005    0.3047
      2 O11        40.2010   25.2900  101.7550 O.3     5  BTN52005   -0.4806
      3 O12        39.7260   23.3350  100.8620 O.2     5  BTN52005   -0.2510
      4 C10        39.8420   25.1970   99.4240 C.3     5  BTN52005    0.0448
      5 C9         39.2920   26.6310   99.3930 C.3     5  BTN52005   -0.0430
      6 C8         37.8230   26.6450   99.8570 C.3     5  BTN52005   -0.0515
      7 C7         37.2030   28.0770   99.8100 C.3     5  BTN52005   -0.0394
      8 C2         35.7200   28.1050  100.2060 C.3     5  BTN52005    0.0255
      9 S1         34.6410   27.4280   98.8870 S.3     5  BTN52005   -0.1536
     10 C6         33.1940   28.0300   99.8060 C.3     5  BTN52005    0.0143
     11 C5         33.5870   29.4180  100.3060 C.3     5  BTN52005    0.0529
     12 N1         33.3360   30.4630   99.3590 N.am    5  BTN52005   -0.2940
     13 C3         34.4600   31.0770   98.9240 C.2     5  BTN52005    0.3002
     14 O3         34.5350   31.9950   98.0910 O.2     5  BTN52005   -0.2528
     15 N2         35.5190   30.5300   99.5830 N.am    5  BTN52005   -0.2937
     16 C4         35.1160   29.4550  100.5110 C.3     5  BTN52005    0.0555
     17 H          40.3414   26.2101  101.6466 H       5  BTN52005    0.2951
     18 H          40.8279   25.2133   99.0086 H       5  BTN52005    0.0377
     19 H          39.1477   24.6045   98.8656 H       5  BTN52005    0.0377
     20 H          39.3514   27.0113   98.3946 H       5  BTN52005    0.0270
     21 H          39.8728   27.2431  100.0510 H       5  BTN52005    0.0270
     22 H          37.7758   26.2820  100.8624 H       5  BTN52005    0.0266
     23 H          37.2624   26.0225   99.1913 H       5  BTN52005    0.0266
     24 H          37.2966   28.4560   98.8137 H       5  BTN52005    0.0276
     25 H          37.7337   28.6776  100.5189 H       5  BTN52005    0.0276
     26 H          35.7459   27.5199  101.1015 H       5  BTN52005    0.0431
     27 H          32.9762   27.3823  100.6293 H       5  BTN52005    0.0395
     28 H          32.3158   28.0585   99.1955 H       5  BTN52005    0.0395
     29 H          33.0091   29.5791  101.1920 H       5  BTN52005    0.0525
     30 H          32.4331   30.7103   99.0543 H       5  BTN52005    0.1506
     31 H          36.4511   30.8198   99.4545 H       5  BTN52005    0.1506
     32 H          35.4455   29.6517  101.5098 H       5  BTN52005    0.0528
@<TRIPOS>BOND
     1    14    13    2
     2     9    10    1
     3     9     8    1
     4    13    12   am
     5    13    15   am
     6    12    11    1
     7     5     4    1
     8     5     6    1
     9     4     1    1
    10    15    16    1
    11    10    11    1
    12     7     6    1
    13     7     8    1
    14     8    16    1
    15    11    16    1
    16     1     3    2
    17     1     2    1
    18     2    17    1
    19     4    18    1
    20     4    19    1
    21     5    20    1
    22     5    21    1
    23     6    22    1
    24     6    23    1
    25     7    24    1
    26     7    25    1
    27     8    26    1
    28    10    27    1
    29    10    28    1
    30    11    29    1
    31    12    30    1
    32    15    31    1
    33    16    32    1
